Version 4
SHEET 1 2680 748
WIRE 16 -64 -80 -64
WIRE 96 -64 16 -64
WIRE 256 -64 96 -64
WIRE -80 -48 -80 -64
WIRE 16 -48 16 -64
WIRE 256 -48 256 -64
WIRE 96 0 96 -64
WIRE 112 0 96 0
WIRE 416 0 400 0
WIRE 496 0 480 0
WIRE -80 48 -80 32
WIRE 16 48 16 16
WIRE 112 96 96 96
WIRE 432 96 400 96
WIRE 432 192 432 160
WIRE 432 192 400 192
WIRE 496 192 432 192
WIRE 624 192 576 192
WIRE 736 192 624 192
WIRE 832 192 736 192
WIRE 1008 192 832 192
WIRE 624 208 624 192
WIRE 736 208 736 192
WIRE 832 208 832 192
WIRE 1008 208 1008 192
WIRE 32 288 0 288
WIRE 112 288 96 288
WIRE 624 288 400 288
WIRE 736 288 736 272
WIRE 736 288 624 288
WIRE 624 304 624 288
WIRE 832 304 832 272
WIRE 1008 304 1008 288
WIRE 16 384 0 384
WIRE 112 384 96 384
WIRE 416 384 400 384
WIRE 624 400 624 384
FLAG 416 384 0
FLAG 0 384 0
FLAG 0 288 0
FLAG -80 48 0
FLAG 496 0 0
FLAG 624 400 0
FLAG 1008 304 0
FLAG 1008 192 OUT
FLAG -80 -64 IN
FLAG 16 48 0
FLAG 96 96 0
FLAG 832 304 0
SYMBOL res 112 368 R90
WINDOW 0 0 56 VBottom 2
WINDOW 3 32 56 VTop 2
SYMATTR InstName R1
SYMATTR Value 40.2k
SYMBOL cap 96 272 R90
WINDOW 0 0 32 VBottom 2
WINDOW 3 32 32 VTop 2
SYMATTR InstName C1
SYMATTR Value 1n
SYMBOL voltage -80 -64 R0
WINDOW 123 0 0 Left 2
WINDOW 39 24 124 Left 2
SYMATTR InstName V1
SYMATTR Value 12.6
SYMBOL cap 416 16 R270
WINDOW 0 32 32 VTop 2
WINDOW 3 0 32 VBottom 2
SYMATTR InstName C2
SYMATTR Value 1µ
SYMBOL ind 480 208 R270
WINDOW 0 32 56 VTop 2
WINDOW 3 5 56 VBottom 2
SYMATTR InstName L1
SYMATTR Value 6.8µ
SYMATTR SpiceLine Ipk=3.7 Rser=0.02135 Rpar=207.24 Cpar=0
SYMBOL cap 416 96 R0
SYMATTR InstName C3
SYMATTR Value 0.1µ
SYMBOL cap 816 208 R0
SYMATTR InstName C4
SYMATTR Value 47µ
SYMATTR SpiceLine V=6.3 Irms=0 Rser=0.002 Lser=0 Rpar=1000 Cpar=5p mfg="TDK" pn="C4532X5ROJ47@M" type="X5R"
SYMBOL res 608 192 R0
SYMATTR InstName R2
SYMATTR Value 261k
SYMBOL res 608 288 R0
SYMATTR InstName R3
SYMATTR Value 35.7k
SYMBOL cap 720 208 R0
SYMATTR InstName C5
SYMATTR Value 10p
SYMBOL cap 0 -48 R0
SYMATTR InstName C6
SYMATTR Value 10µ
SYMATTR SpiceLine V=50
SYMBOL res 992 192 R0
SYMATTR InstName Rload
SYMATTR Value 32.5
SYMBOL LT8609 256 192 R0
SYMATTR InstName U1
TEXT 808 392 Left 2 !.tran 3m startup
TEXT 352 -80 Bottom 2 ;LT8609 - 42V, 2A Synchronous Step-Down Regulator with 2.5µA Quiescent Current\n5V, 2MHz, µPower Step Down\nInput: 5.5V to 40V       Output: 5V @ 2A, Fsw = 2MHz
TEXT -192 456 Left 2 ;Note:\n  If the simulation model is not found please update with the "Sync Release" command from the "Tools" menu.\n  It remains the customer's responsibility to verify proper and reliable operation in the actual application.\n  Component substitution and printed circuit board layout may significantly affect circuit performance or reliability.\n  Contact your local sales representative for assistance. This circuit is distributed to customers only for use with LTC parts.\n  Copyright © 2015 Linear Technology Inc. All rights reserved.
TEXT 56 432 Top 2 ;(1MHz)
